[Format]      =  4.0
[Frequency]   =  0
[Precision]   =  1e-008
[MinAngle]    =  30
[DoSmartMesh] =  1
[Depth]       =  20
[LengthUnits] =  millimeters
[ProblemType] =  planar
[Coordinates] =  cartesian
[ACSolver]    =  0
[PrevType]    =  0
[PrevSoln]    =  ""
[Comment]     =  "Add comments here."
[PointProps]   = 0
[BdryProps]   = 2
  <BeginBdry>
    <BdryName> = "A = 0"
    <BdryType> = 0
    <A_0> = 0
    <A_1> = 0
    <A_2> = 0
    <Phi> = 0
    <c0> = 0
    <c0i> = 0
    <c1> = 0
    <c1i> = 0
    <Mu_ssd> = 0
    <Sigma_ssd> = 0
    <innerangle> = 0
    <outerangle> = 0
  <EndBdry>
  <BeginBdry>
    <BdryName> = "slidingBand"
    <BdryType> = 6
    <A_0> = 0
    <A_1> = 0
    <A_2> = 0
    <Phi> = 0
    <c0> = 0
    <c0i> = 0
    <c1> = 0
    <c1i> = 0
    <Mu_ssd> = 0
    <Sigma_ssd> = 0
    <innerangle> = 0
    <outerangle> = 0
  <EndBdry>
[BlockProps]  = 5
  <BeginBlock>
    <BlockName> = "Air"
    <Mu_x> = 1
    <Mu_y> = 1
    <H_c> = 0
    <H_cAngle> = 0
    <J_re> = 0
    <J_im> = 0
    <Sigma> = 0
    <d_lam> = 0
    <Phi_h> = 0
    <Phi_hx> = 0
    <Phi_hy> = 0
    <LamType> = 0
    <LamFill> = 1
    <NStrands> = 0
    <WireD> = 0
    <BHPoints> = 0
  <EndBlock>
  <BeginBlock>
    <BlockName> = "N52"
    <Mu_x> = 1.05
    <Mu_y> = 1.05
    <H_c> = 956180
    <H_cAngle> = 0
    <J_re> = 0
    <J_im> = 0
    <Sigma> = 0.66700000000000004
    <d_lam> = 0
    <Phi_h> = 0
    <Phi_hx> = 0
    <Phi_hy> = 0
    <LamType> = 0
    <LamFill> = 1
    <NStrands> = 0
    <WireD> = 0
    <BHPoints> = 8
      0	0
      0.073200000000000001	7484
      0.1464	18446
      0.2195	37084
      0.29270000000000002	72766
      0.3659	124571
      0.43909999999999999	179757
      1.4636	956180
  <EndBlock>
  <BeginBlock>
    <BlockName> = "1018 Steel"
    <Mu_x> = 529
    <Mu_y> = 529
    <H_c> = 0
    <H_cAngle> = 0
    <J_re> = 0
    <J_im> = 0
    <Sigma> = 5.7999999999999998
    <d_lam> = 0
    <Phi_h> = 20
    <Phi_hx> = 0
    <Phi_hy> = 0
    <LamType> = 0
    <LamFill> = 1
    <NStrands> = 0
    <WireD> = 0
    <BHPoints> = 13
      0	0
      0.25030000000000002	238.73249999999999
      0.92500000000000004	795.77499999999998
      1.25	1591.55
      1.3899999999999999	2387.3249999999998
      1.5249999999999999	3978.875
      1.71	7957.75
      1.8700000000000001	15915.5
      1.9550000000000001	23873.25
      2.02	39788.75
      2.1099999999999999	79577.5
      2.2250000000000001	159155
      2.4300000000000002	318310
  <EndBlock>
  <BeginBlock>
    <BlockName> = "M-27 Steel"
    <Mu_x> = 12138
    <Mu_y> = 12138
    <H_c> = 0
    <H_cAngle> = 0
    <J_re> = 0
    <J_im> = 0
    <Sigma> = 2
    <d_lam> = 0.63500000000000001
    <Phi_h> = 0
    <Phi_hx> = 0
    <Phi_hy> = 0
    <LamType> = 0
    <LamFill> = 0.97999999999999998
    <NStrands> = 0
    <WireD> = 0
    <BHPoints> = 47
      0	0
      0.050000000000000003	17.059828
      0.10000000000000001	25.634971
      0.14999999999999999	31.338353999999999
      0.20000000000000001	35.778996999999997
      0.25	39.602124000000003
      0.29999999999999999	43.123142999999999
      0.34999999999999998	46.520439000000003
      0.40000000000000002	49.908177000000002
      0.45000000000000001	53.368284000000003
      0.5	56.966318000000001
      0.55000000000000004	60.760271000000003
      0.59999999999999998	64.806105000000002
      0.65000000000000002	69.161803000000006
      0.69999999999999996	73.890922000000003
      0.75	79.066315000000003
      0.80000000000000004	84.774675999999999
      0.84999999999999998	91.122721999999996
      0.90000000000000002	98.246298999999993
      0.94999999999999996	106.324591
      1	115.60341699999999
      1.05	126.435124
      1.1000000000000001	139.34975900000001
      1.1499999999999999	155.187082
      1.2	175.350538
      1.25	202.312017
      1.3	240.640455
      1.3500000000000001	299.11802699999998
      1.3999999999999999	394.99338599999999
      1.45	561.72617700000001
      1.5	859.32876299999998
      1.55	1375.4668879999999
      1.6000000000000001	2191.2469139999998
      1.6499999999999999	3328.145908
      1.7	4760.5061720000003
      1.75	6535.3394490000001
      1.8	8788.9706569999998
      1.8500000000000001	11670.804346999999
      1.8999999999999999	15385.186211
      1.95	20246.553030999999
      2	26995.131141000002
      2.0499999999999998	38724.496369
      2.1000000000000001	64917.284463000004
      2.1499999999999999	101489.30933800001
      2.2000000000000002	137202.82896099999
      2.25	176835.706764
      2.2999999999999998	216374.28360900001
  <EndBlock>
  <BeginBlock>
    <BlockName> = "22 AWG"
    <Mu_x> = 1
    <Mu_y> = 1
    <H_c> = 0
    <H_cAngle> = 0
    <J_re> = 0
    <J_im> = 0
    <Sigma> = 58
    <d_lam> = 0
    <Phi_h> = 0
    <Phi_hx> = 0
    <Phi_hy> = 0
    <LamType> = 3
    <LamFill> = 1
    <NStrands> = 1
    <WireD> = 0.64399170069399603
    <BHPoints> = 0
  <EndBlock>
[CircuitProps]  = 3
  <BeginCircuit>
    <CircuitName> = "Phase A"
    <TotalAmps_re> = 1
    <TotalAmps_im> = 0
    <CircuitType> = 1
  <EndCircuit>
  <BeginCircuit>
    <CircuitName> = "Phase B"
    <TotalAmps_re> = 0
    <TotalAmps_im> = 0
    <CircuitType> = 1
  <EndCircuit>
  <BeginCircuit>
    <CircuitName> = "Phase C"
    <TotalAmps_re> = 0
    <TotalAmps_im> = 0
    <CircuitType> = 1
  <EndCircuit>
[NumPoints] = 113
8.7267100295303202	82.536182200058789	0	31
9.6232852578128831	82.457742031585894	0	31
7.1579066600724781	64.604677634407352	0	31
-10.39531356216329	84.397837982120734	0	31
-10.22100207666797	82.405448585937251	0	31
-4.4181453736127736	84.920772438606733	0	31
-4.2438338881174573	82.928383042423206	0	31
-4.8415507069725301	82.876089596774648	0	31
-5.7381259352550789	82.797649428301739	0	31
-4.1693225657972306	64.866144862650302	0	31
-8.7267100295303131	82.536182200058761	0	31
-7.1579066600724666	64.604677634407338	0	31
-9.6232852578128849	82.45774203158588	0	31
1.04e-014	6.9000000000000001e-015	0	31
133.45535058187221	204.26862069605701	0	31
-133.45535058187221	204.2686206960569	0	31
32.894861514662729	76.222141966963648	0	31
25.27631669790501	59.884119883214517	0	31
33.710538522995734	75.841785531397051	0	31
26.103409811663131	59.52824536473733	0	31
37.245138892438653	74.193574310608327	0	31
36.429461884105692	74.573930746174938	0	31
27.934891802885218	54.227684995407067	0	31
28.822333172773071	58.260390579515217	0	31
23.795722569656999	79.533957700398133	0	31
22.926389325996851	79.766894840990389	0	31
19.129988328968121	62.121200459533497	0	31
18.267646514151458	62.380229967787173	0	31
19.159278603469499	80.776289116890226	0	31
14.493544362780611	63.363531876025583	0	31
20.02861184712966	80.543351976297956	0	31
15.36986903528426	63.156687103094718	0	31
4.8415507069725168	82.876089596774605	0	31
3.2703930162803871	64.917675016277855	0	31
5.7381259352550904	82.797649428301767	0	31
4.1693225657972421	64.866144862650302	0	31
8.0521275671207473	64.499327451089087	0	31
-3.2703930162803938	64.917675016277855	0	31
-8.0521275671207597	64.499327451089073	0	31
-19.159278603469431	80.776289116890254	0	31
-20.028611847129589	80.543351976297984	0	31
-14.493544362780581	63.363531876025583	0	31
-15.369869035284211	63.156687103094733	0	31
-23.795722569656949	79.533957700398133	0	31
-19.129988328968079	62.121200459533497	0	31
-22.92638932599678	79.766894840990417	0	31
-18.267646514151409	62.380229967787173	0	31
-32.894861514662708	76.222141966963676	0	31
-33.710538522995677	75.841785531397065	0	31
-25.276316697904988	59.884119883214517	0	31
-32.351076842440698	76.475712924008121	0	31
-36.432076049373343	77.825942802248335	0	31
-37.859918228484567	80.46436405586779	0	31
24.892916155635511	81.310517925914752	0	31
19.097361197901051	82.863432196529885	0	31
-33.196313365922087	78.288328498081427	0	31
-38.634160088142032	75.752618927637215	0	31
-36.429461884105621	74.573930746174952	0	31
-37.24513889243859	74.193574310608327	0	31
18.579723107696012	80.931580543951753	0	31
-37.788923564660642	73.940003353563895	0	31
-27.93489180288519	54.227684995407067	0	31
-19.097361197901019	82.863432196529899	0	31
-24.892916155635479	81.310517925914766	0	31
-26.10340981166307	59.52824536473733	0	31
-24.375278065430429	79.37866627333662	0	31
-46.654655740549387	75.704890125497116	0	31
-28.822333172773021	58.260390579515239	0	31
-45.226813561438227	73.066468871877589	0	31
37.85991822848468	80.464364055867762	0	31
36.432076049373457	77.825942802248292	0	31
45.22681356143832	73.066468871877561	0	31
46.654655740549593	75.704890125497045	0	31
33.557731673599598	82.351478044449578	0	31
24.099559256593469	85.598472736496333	0	31
23.125460848979191	82.761021011394504	0	31
32.583633265985512	79.514026319347678	0	31
-18.579723107695969	80.931580543951739	0	31
38.63416008814206	75.752618927637201	0	31
33.196313365922123	78.288328498081412	0	31
10.221002076667929	82.405448585937251	0	31
10.395313562163251	84.397837982120748	0	31
37.788923564660656	73.94000335356391	0	31
32.351076842440698	76.475712924008079	0	31
4.4181453736127381	84.920772438606747	0	31
4.2438338881174191	82.928383042423206	0	31
19.545440165071451	86.751732316630921	0	31
9.6818271310444715	88.397678219438205	0	31
9.1880433602020233	85.438594309230041	0	31
19.051656394229219	83.7926484064227	0	31
4.9999999999999512	88.785625476102652	0	31
-5.0000000000000391	88.785625476102652	0	31
24.375278065430479	79.37866627333662	0	31
-5.0000000000000302	85.785625476102666	0	31
4.9999999999999698	85.785625476102666	0	31
-9.6818271310441659	88.397678219438248	0	31
-19.545440165070989	86.751732316630978	0	31
-19.05165639422918	83.792648406422742	0	31
-9.1880433602019309	85.438594309230083	0	31
-24.099559256593139	85.598472736496447	0	31
-33.55773167359925	82.351478044449706	0	31
-32.583633265985448	79.514026319347735	0	31
-23.12546084897912	82.761021011394547	0	31
46.646815768473488	71.398266726245865	0	31
-46.646815768473594	71.398266726245794	0	31
46.783552808004089	71.607558345811483	0	31
-46.783552808004067	71.607558345811498	0	31
50.278921881082717	76.957618993574016	0	31
-50.27892188108283	76.957618993573945	0	31
-29.626594075680902	57.855552226859167	0	31
29.626594075680885	57.855552226859182	0	31
48.638077406715439	74.446119558786435	0	31
-48.638077406715546	74.446119558786364	0	31
[NumSegments] = 106
0	1	-1	0	0	31
2	0	-1	0	0	31
3	4	-1	0	0	31
5	3	-1	0	0	31
6	5	-1	0	0	31
7	6	-1	0	0	31
8	7	-1	0	0	31
9	8	-1	0	0	31
10	11	-1	0	0	31
12	10	-1	0	0	31
13	103	-1	0	0	31
13	104	-1	0	0	31
16	17	-1	0	0	31
18	16	-1	0	0	31
19	18	-1	0	0	31
20	21	-1	0	0	31
22	110	-1	0	0	31
21	23	-1	0	0	31
24	25	-1	0	0	31
26	24	-1	0	0	31
25	27	-1	0	0	31
28	29	-1	0	0	31
30	28	-1	0	0	31
31	30	-1	0	0	31
32	33	-1	0	0	31
34	32	-1	0	0	31
35	34	-1	0	0	31
36	1	-1	0	0	31
37	7	-1	0	0	31
12	38	-1	0	0	31
39	40	-1	0	0	31
41	39	-1	0	0	31
40	42	-1	0	0	31
43	44	-1	0	0	31
45	43	-1	0	0	31
46	45	-1	0	0	31
47	48	-1	0	0	31
49	47	-1	0	0	31
47	50	-1	0	0	31
51	52	-1	0	0	31
53	54	-1	0	0	31
55	56	-1	0	0	31
57	58	-1	0	0	31
54	59	-1	0	0	31
56	60	-1	0	0	31
58	109	-1	0	0	31
59	28	-1	0	0	31
62	63	-1	0	0	31
48	64	-1	0	0	31
63	65	-1	0	0	31
52	66	-1	0	0	31
57	67	-1	0	0	31
66	68	-1	0	0	31
69	70	-1	0	0	31
70	71	-1	0	0	31
71	72	-1	0	0	31
73	74	-1	0	0	31
75	76	-1	0	0	31
74	75	-1	0	0	31
72	69	-1	0	0	31
65	43	-1	0	0	31
68	51	-1	0	0	31
77	62	-1	0	0	31
78	79	-1	0	0	31
80	81	-1	0	0	31
20	82	-1	0	0	31
39	77	-1	0	0	31
82	78	-1	0	0	31
1	80	-1	0	0	31
79	83	-1	0	0	31
50	55	-1	0	0	31
60	58	-1	0	0	31
83	16	-1	0	0	31
81	84	-1	0	0	31
76	73	-1	0	0	31
84	85	-1	0	0	31
86	87	-1	0	0	31
4	12	-1	0	0	31
85	32	-1	0	0	31
87	88	-1	0	0	31
88	89	-1	0	0	31
89	86	-1	0	0	31
90	91	-1	0	0	31
24	92	-1	0	0	31
92	53	-1	0	0	31
91	93	-1	0	0	31
93	94	-1	0	0	31
94	90	-1	0	0	31
95	96	-1	0	0	31
96	97	-1	0	0	31
97	98	-1	0	0	31
98	95	-1	0	0	31
99	100	-1	0	0	31
100	101	-1	0	0	31
101	102	-1	0	0	31
102	99	-1	0	0	31
103	105	-1	0	0	31
104	106	-1	0	0	31
105	111	-1	0	0	31
106	112	-1	0	0	31
107	14	-1	0	0	31
108	15	-1	0	0	31
109	61	-1	0	0	31
110	20	-1	0	0	31
111	107	-1	0	0	31
112	108	-1	0	0	31
[NumArcSegments] = 30
103	104	66.315789473684305	1	2	0	0	1
105	106	66.315789473684191	1	2	0	0	1
107	108	66.315789473684305	5	0	0	31	1
74	86	3.027221237367641	5	0	0	31	1
87	90	3.0272212373676837	5	0	0	31	1
91	95	3.0272212373674421	5	0	0	31	1
96	99	3.0272212373676979	5	0	0	31	1
100	52	3.0272212373675984	5	0	0	31	1
19	17	0.79368977888031389	5	0	0	31	1
17	26	5.7679650811755936	5	0	0	31	1
26	27	0.79368977888029757	5	0	0	31	1
31	29	0.79368977888030257	5	0	0	31	1
29	36	5.7679650811756522	5	0	0	31	1
36	2	0.79368977888028813	5	0	0	31	1
35	33	0.79368977888030623	5	0	0	31	1
33	37	5.7679650811756096	5	0	0	31	1
37	9	0.79368977888029013	5	0	0	31	1
11	38	0.79368977888030834	5	0	0	31	1
38	41	5.7679650811755971	5	0	0	31	1
41	42	0.79368977888028147	5	0	0	31	1
46	44	0.79368977888030101	5	0	0	31	1
44	49	5.7679650811756185	5	0	0	31	1
49	64	0.7936897788802818	5	0	0	31	1
67	109	0.79368977888030656	5	0	0	31	1
69	73	3.0272212373677547	5	0	0	31	1
110	23	0.79368977888024261	5	0	0	31	1
22	61	54.509684342570793	1	1	0	0	1
14	15	66.315789473684305	1	1	0	0	1
111	72	1.5136106186836722	5	0	0	31	1
66	112	1.5136106186838962	5	0	0	31	1
[NumHoles] = 1
0	85.375	0
[NumBlockLabels] = 24
0	243	1	-1	0	0	0	1	0
0	85.75	1	-1	0	0	0	1	0
0	85	1	-1	0	0	0	1	0
0	63	4	-1	0	0	0	1	0
0	90.25	3	-1	0	0	0	1	0
-41.526410042484663	76.734084792766168	2	-1	0	118.42105263157895	0	1	0
-28.33002868810863	82.522554338380374	2	-1	0	-71.05263157894737	0	1	0
-14.360878001994028	86.060023721887532	2	-1	0	99.473684210526315	0	1	0
5.3425216612803287e-015	87.25	2	-1	0	-90	0	1	0
14.36087800199404	86.060023721887518	2	-1	0	80.526315789473671	0	1	0
28.330028688108641	82.522554338380374	2	-1	0	-108.94736842105263	0	1	0
41.526410042484656	76.734084792766168	2	-1	0	61.578947368421055	0	1	0
-33.041051553533229	66.242670630317733	5	-1	1	0	0	20	0
-21.036164698850214	70.973814007441135	5	-1	1	0	0	-20	0
-8.3921046246056026	73.548453960431232	5	-1	2	0	0	-20	0
4.5069453020477912	73.888361357147105	5	-1	2	0	0	20	0
17.269053976322862	71.983208283340971	5	-1	3	0	0	20	0
29.506451184090281	67.890881851106471	5	-1	3	0	0	-20	0
-29.506451184090292	67.890881851106471	5	-1	1	0	0	-20	0
-17.269053976322855	71.983208283340986	5	-1	1	0	0	20	0
-4.5069453020477992	73.888361357147105	5	-1	2	0	0	20	0
8.3921046246056132	73.548453960431246	5	-1	2	0	0	-20	0
21.036164698850211	70.973814007441149	5	-1	3	0	0	-20	0
33.041051553533237	66.242670630317747	5	-1	3	0	0	20	0
