[Format]      =  4.0
[Frequency]   =  0
[Precision]   =  1e-008
[MinAngle]    =  18
[DoSmartMesh] =  1
[Depth]       =  20
[LengthUnits] =  millimeters
[ProblemType] =  planar
[Coordinates] =  cartesian
[ACSolver]    =  0
[PrevType]    =  0
[PrevSoln]    =  ""
[Comment]     =  "Add comments here."
[PointProps]   = 0
[BdryProps]   = 2
  <BeginBdry>
    <BdryName> = "A = 0"
    <BdryType> = 0
    <A_0> = 0
    <A_1> = 0
    <A_2> = 0
    <Phi> = 0
    <c0> = 0
    <c0i> = 0
    <c1> = 0
    <c1i> = 0
    <Mu_ssd> = 0
    <Sigma_ssd> = 0
    <innerangle> = 0
    <outerangle> = 0
  <EndBdry>
  <BeginBdry>
    <BdryName> = "slidingBand"
    <BdryType> = 6
    <A_0> = 0
    <A_1> = 0
    <A_2> = 0
    <Phi> = 0
    <c0> = 0
    <c0i> = 0
    <c1> = 0
    <c1i> = 0
    <Mu_ssd> = 0
    <Sigma_ssd> = 0
    <innerangle> = 0
    <outerangle> = 0
  <EndBdry>
[BlockProps]  = 5
  <BeginBlock>
    <BlockName> = "Air"
    <Mu_x> = 1
    <Mu_y> = 1
    <H_c> = 0
    <H_cAngle> = 0
    <J_re> = 0
    <J_im> = 0
    <Sigma> = 0
    <d_lam> = 0
    <Phi_h> = 0
    <Phi_hx> = 0
    <Phi_hy> = 0
    <LamType> = 0
    <LamFill> = 1
    <NStrands> = 0
    <WireD> = 0
    <BHPoints> = 0
  <EndBlock>
  <BeginBlock>
    <BlockName> = "N52"
    <Mu_x> = 1.05
    <Mu_y> = 1.05
    <H_c> = 956180
    <H_cAngle> = 0
    <J_re> = 0
    <J_im> = 0
    <Sigma> = 0.66700000000000004
    <d_lam> = 0
    <Phi_h> = 0
    <Phi_hx> = 0
    <Phi_hy> = 0
    <LamType> = 0
    <LamFill> = 1
    <NStrands> = 0
    <WireD> = 0
    <BHPoints> = 8
      0	0
      0.073200000000000001	7484
      0.1464	18446
      0.2195	37084
      0.29270000000000002	72766
      0.3659	124571
      0.43909999999999999	179757
      1.4636	956180
  <EndBlock>
  <BeginBlock>
    <BlockName> = "1018 Steel"
    <Mu_x> = 529
    <Mu_y> = 529
    <H_c> = 0
    <H_cAngle> = 0
    <J_re> = 0
    <J_im> = 0
    <Sigma> = 5.7999999999999998
    <d_lam> = 0
    <Phi_h> = 20
    <Phi_hx> = 0
    <Phi_hy> = 0
    <LamType> = 0
    <LamFill> = 1
    <NStrands> = 0
    <WireD> = 0
    <BHPoints> = 13
      0	0
      0.25030000000000002	238.73249999999999
      0.92500000000000004	795.77499999999998
      1.25	1591.55
      1.3899999999999999	2387.3249999999998
      1.5249999999999999	3978.875
      1.71	7957.75
      1.8700000000000001	15915.5
      1.9550000000000001	23873.25
      2.02	39788.75
      2.1099999999999999	79577.5
      2.2250000000000001	159155
      2.4300000000000002	318310
  <EndBlock>
  <BeginBlock>
    <BlockName> = "M-27 Steel"
    <Mu_x> = 12138
    <Mu_y> = 12138
    <H_c> = 0
    <H_cAngle> = 0
    <J_re> = 0
    <J_im> = 0
    <Sigma> = 2
    <d_lam> = 0.63500000000000001
    <Phi_h> = 0
    <Phi_hx> = 0
    <Phi_hy> = 0
    <LamType> = 0
    <LamFill> = 0.97999999999999998
    <NStrands> = 0
    <WireD> = 0
    <BHPoints> = 47
      0	0
      0.050000000000000003	17.059828
      0.10000000000000001	25.634971
      0.14999999999999999	31.338353999999999
      0.20000000000000001	35.778996999999997
      0.25	39.602124000000003
      0.29999999999999999	43.123142999999999
      0.34999999999999998	46.520439000000003
      0.40000000000000002	49.908177000000002
      0.45000000000000001	53.368284000000003
      0.5	56.966318000000001
      0.55000000000000004	60.760271000000003
      0.59999999999999998	64.806105000000002
      0.65000000000000002	69.161803000000006
      0.69999999999999996	73.890922000000003
      0.75	79.066315000000003
      0.80000000000000004	84.774675999999999
      0.84999999999999998	91.122721999999996
      0.90000000000000002	98.246298999999993
      0.94999999999999996	106.324591
      1	115.60341699999999
      1.05	126.435124
      1.1000000000000001	139.34975900000001
      1.1499999999999999	155.187082
      1.2	175.350538
      1.25	202.312017
      1.3	240.640455
      1.3500000000000001	299.11802699999998
      1.3999999999999999	394.99338599999999
      1.45	561.72617700000001
      1.5	859.32876299999998
      1.55	1375.4668879999999
      1.6000000000000001	2191.2469139999998
      1.6499999999999999	3328.145908
      1.7	4760.5061720000003
      1.75	6535.3394490000001
      1.8	8788.9706569999998
      1.8500000000000001	11670.804346999999
      1.8999999999999999	15385.186211
      1.95	20246.553030999999
      2	26995.131141000002
      2.0499999999999998	38724.496369
      2.1000000000000001	64917.284463000004
      2.1499999999999999	101489.30933800001
      2.2000000000000002	137202.82896099999
      2.25	176835.706764
      2.2999999999999998	216374.28360900001
  <EndBlock>
  <BeginBlock>
    <BlockName> = "22 AWG"
    <Mu_x> = 1
    <Mu_y> = 1
    <H_c> = 0
    <H_cAngle> = 0
    <J_re> = 0
    <J_im> = 0
    <Sigma> = 58
    <d_lam> = 0
    <Phi_h> = 0
    <Phi_hx> = 0
    <Phi_hy> = 0
    <LamType> = 3
    <LamFill> = 1
    <NStrands> = 1
    <WireD> = 0.64399170069399603
    <BHPoints> = 0
  <EndBlock>
[CircuitProps]  = 3
  <BeginCircuit>
    <CircuitName> = "Phase A"
    <TotalAmps_re> = 1
    <TotalAmps_im> = 0
    <CircuitType> = 1
  <EndCircuit>
  <BeginCircuit>
    <CircuitName> = "Phase B"
    <TotalAmps_re> = 0
    <TotalAmps_im> = 0
    <CircuitType> = 1
  <EndCircuit>
  <BeginCircuit>
    <CircuitName> = "Phase C"
    <TotalAmps_re> = 0
    <TotalAmps_im> = 0
    <CircuitType> = 1
  <EndCircuit>
[NumPoints] = 236
48.744919186474988	70.767975750548189	0	31
56.636324280438942	64.625848623651507	0	31
50.587557324543972	73.135397278737344	0	31
58.478962418507891	66.993270151840662	0	31
66.500943712947645	54.422403691986261	0	31
68.708115444967049	56.454248406863499	0	31
59.728127996690219	61.77964279871761	0	31
61.93529972870963	63.811487513594848	0	31
74.551590755989281	42.734457456222003	0	31
77.063090190776862	44.375301930589274	0	31
69.082109174765023	51.106122238847263	0	31
71.593608609552604	52.74696671321454	0	31
80.568664744700243	29.880826621468351	0	31
83.315984724665412	31.085912895427249	0	31
76.551710498170536	39.038559888018924	0	31
79.29903047813572	40.243646161977829	0	31
84.388035586009707	16.212124729982499	0	31
87.296236383827704	16.948581191404902	0	31
81.933180714601747	25.906127389375811	0	31
84.841381512419716	26.6425838507982	0	31
85.90552079972349	2.101198337717809	0	31
88.895274278743528	2.348936374134809	0	31
85.079727345000165	12.06704326778452	0	31
88.069480824020204	12.314781304201521	0	31
85.079727345000151	-12.06704326778458	0	31
88.069480824020189	-12.314781304201579	0	31
85.905520799723476	-2.101198337717904	0	31
88.895274278743514	-2.348936374134905	0	31
81.933180714601718	-25.906127389375889	0	31
84.841381512419716	-26.642583850798289	0	31
84.388035586009693	-16.212124729982591	0	31
87.296236383827704	-16.94858119140499	0	31
76.551710498170522	-39.038559888018973	0	31
79.299030478135705	-40.243646161977892	0	31
80.568664744700214	-29.88082662146838	0	31
83.315984724665412	-31.085912895427299	0	31
69.082109174764938	-51.106122238847377	0	31
71.593608609552533	-52.746966713214668	0	31
74.55159075598921	-42.73445745622206	0	31
77.063090190776819	-44.375301930589352	0	31
59.728127996690098	-61.779642798717759	0	31
61.935299728709509	-63.811487513594997	0	31
66.500943712947532	-54.422403691986418	0	31
68.708115444966936	-56.45424840686367	0	31
48.744919186474817	-70.767975750548302	0	31
50.587557324543837	-73.1353972787375	0	31
56.636324280438778	-64.625848623651606	0	31
58.478962418507798	-66.993270151840804	0	31
36.432076049373258	-77.825942802248377	0	31
37.859918228484489	-80.464364055867833	0	31
45.226813561438163	-73.066468871877632	0	31
46.654655740549373	-75.704890125497101	0	31
23.12546084897911	-82.761021011394547	0	31
24.09955925659316	-85.598472736496461	0	31
32.583633265985469	-79.514026319347707	0	31
33.557731673599527	-82.351478044449621	0	31
9.18804336020197	-85.438594309230098	0	31
9.6818271310441713	-88.397678219438248	0	31
19.051656394229191	-83.792648406422742	0	31
19.54544016507139	-86.751732316630907	0	31
-5.000000000000032	-85.785625476102666	0	31
-5.000000000000032	-88.785625476102652	0	31
4.9999999999999476	-85.785625476102666	0	31
4.9999999999999476	-88.785625476102652	0	31
-19.051656394229269	-83.792648406422728	0	31
-19.545440165071479	-86.751732316630907	0	31
-9.1880433602020357	-85.438594309230069	0	31
-9.6818271310442405	-88.397678219438234	0	31
-32.583633265985483	-79.514026319347693	0	31
-33.557731673599541	-82.351478044449607	0	31
-23.125460848979181	-82.761021011394504	0	31
-24.099559256593231	-85.598472736496419	0	31
-45.226813561438377	-73.066468871877547	0	31
-46.6546557405496	-75.704890125497002	0	31
-36.432076049373492	-77.825942802248306	0	31
-37.859918228484702	-80.464364055867762	0	31
-56.636324280438878	-64.625848623651535	0	31
-58.478962418507876	-66.993270151840719	0	31
-48.744919186474952	-70.767975750548203	0	31
-50.587557324543951	-73.1353972787374	0	31
-66.500943712947588	-54.422403691986361	0	31
-68.708115444967007	-56.454248406863599	0	31
-59.728127996690191	-61.779642798717667	0	31
-61.935299728709587	-63.811487513594898	0	31
-74.551590755989281	-42.734457456222003	0	31
-77.063090190776862	-44.375301930589274	0	31
-69.082109174765009	-51.106122238847277	0	31
-71.593608609552604	-52.746966713214562	0	31
-80.568664744700243	-29.880826621468309	0	31
-83.315984724665427	-31.085912895427221	0	31
-76.551710498170564	-39.038559888018902	0	31
-79.29903047813572	-40.2436461619778	0	31
-84.388035586009693	-16.212124729982541	0	31
-87.296236383827704	-16.948581191404941	0	31
-81.933180714601733	-25.90612738937585	0	31
-84.841381512419716	-26.642583850798239	0	31
-85.90552079972349	-2.1011983377178138	0	31
-88.895274278743514	-2.3489363741348122	0	31
-85.07972734500018	-12.067043267784509	0	31
-88.069480824020204	-12.31478130420151	0	31
-33.710538522995662	75.841785531397036	0	31
-26.10340981166307	59.52824536473733	0	31
-25.276316697904988	59.884119883214517	0	31
-32.894861514662701	76.222141966963662	0	31
-18.267646514151409	62.380229967787173	0	31
-22.92638932599678	79.766894840990403	0	31
-23.795722569656949	79.533957700398147	0	31
-19.129988328968079	62.121200459533497	0	31
-20.028611847129579	80.543351976297942	0	31
-15.369869035284211	63.156687103094733	0	31
-14.493544362780581	63.363531876025583	0	31
-19.159278603469438	80.776289116890226	0	31
-8.7267100295303148	82.536182200058775	0	31
-9.6232852578128849	82.45774203158588	0	31
-8.0521275671207597	64.499327451089073	0	31
-5.7381259352550762	82.79764942830171	0	31
-4.1693225657972306	64.866144862650302	0	31
-3.2703930162803938	64.917675016277855	0	31
-4.841550706972523	82.876089596774605	0	31
8.7267100295303184	82.536182200058747	0	31
7.1579066600724781	64.604677634407352	0	31
8.0521275671207473	64.499327451089087	0	31
9.623285257812876	82.457742031585852	0	31
4.1693225657972421	64.866144862650302	0	31
5.738125935255086	82.79764942830171	0	31
4.8415507069725194	82.876089596774676	0	31
3.2703930162803871	64.917675016277855	0	31
15.36986903528426	63.156687103094718	0	31
20.02861184712965	80.543351976297942	0	31
19.159278603469499	80.77628911689024	0	31
14.493544362780611	63.363531876025583	0	31
22.926389325996851	79.766894840990375	0	31
18.267646514151458	62.380229967787173	0	31
19.129988328968121	62.121200459533497	0	31
23.795722569656991	79.533957700398105	0	31
36.42946188410567	74.573930746174895	0	31
28.822333172773071	58.260390579515217	0	31
27.934891802885218	54.227684995407067	0	31
37.245138892438632	74.193574310608284	0	31
26.103409811663131	59.52824536473733	0	31
33.710538522995734	75.841785531397022	0	31
32.894861514662743	76.222141966963676	0	31
25.27631669790501	59.884119883214517	0	31
-71.593608609552547	52.746966713214647	0	31
-77.063090190776677	44.375301930589593	0	31
-74.551590755989238	42.734457456222088	0	31
-69.082109174764994	51.106122238847327	0	31
-83.315984724665384	31.08591289542732	0	31
-80.568664744700214	29.880826621468412	0	31
-76.551710498170493	39.03855988801903	0	31
-79.299030478135691	40.243646161977892	0	31
-32.351076842440698	76.475712924008121	0	31
-33.196313365922073	78.288328498081384	0	31
-7.1579066600724666	64.604677634407338	0	31
-10.221002076668	82.405448585937265	0	31
-50.58755732454388	73.135397278737429	0	31
-48.74491918647486	70.767975750548217	0	31
-84.388035586009721	16.212124729982602	0	31
-81.933180714601733	25.906127389375879	0	31
-59.728127996690162	61.779642798717703	0	31
-61.935299728709523	63.811487513594898	0	31
-87.29623638382769	16.94858119140499	0	31
-66.50094371294756	54.422403691986403	0	31
-84.841381512419716	26.642583850798299	0	31
-68.708115444966936	56.454248406863599	0	31
-56.636324280438828	64.625848623651578	0	31
-58.478962418507862	66.99327015184079	0	31
-37.245138892438597	74.193574310608327	0	31
-27.93489180288519	54.227684995407067	0	31
-36.429461884105621	74.573930746174952	0	31
-28.822333172773021	58.260390579515239	0	31
-36.432076049373343	77.825942802248335	0	31
-37.859918228484567	80.46436405586779	0	31
-45.226813561438227	73.066468871877589	0	31
-46.654655740549458	75.704890125497073	0	31
-23.12546084897911	82.761021011394561	0	31
-24.09955925659315	85.598472736496447	0	31
-32.583633265985448	79.514026319347735	0	31
-33.557731673599513	82.351478044449621	0	31
-9.1880433602019611	85.438594309230083	0	31
-9.6818271310441659	88.397678219438248	0	31
-19.05165639422918	83.792648406422742	0	31
-19.54544016507138	86.751732316630921	0	31
4.9999999999999698	85.785625476102666	0	31
4.9999999999999698	88.785625476102652	0	31
-5.0000000000000302	85.785625476102666	0	31
-5.0000000000000302	88.785625476102652	0	31
24.375278065430461	79.378666273336577	0	31
24.89291615563549	81.310517925914709	0	31
-4.2438338881174573	82.928383042423206	0	31
-4.4181453736127718	84.920772438606704	0	31
4.2438338881174227	82.928383042423235	0	31
4.4181453736127336	84.920772438606704	0	31
10.395313562163251	84.397837982120791	0	31
10.221002076667929	82.405448585937251	0	31
-24.37527806543044	79.378666273336634	0	31
-24.892916155635469	81.310517925914738	0	31
-19.097361197901019	82.863432196529899	0	31
-18.579723107695969	80.931580543951739	0	31
-10.39531356216329	84.397837982120734	0	31
-37.788923564660621	73.940003353563895	0	31
-38.634160088142011	75.752618927637158	0	31
19.097361197901051	82.863432196529885	0	31
18.579723107696012	80.931580543951753	0	31
37.788923564660656	73.94000335356391	0	31
38.634160088142032	75.752618927637144	0	31
33.196313365922123	78.288328498081412	0	31
32.351076842440698	76.475712924008079	0	31
46.654655740549579	75.704890125497045	0	31
37.859918228485043	80.464364055867577	0	31
36.432076049373457	77.825942802248292	0	31
45.22681356143832	73.066468871877561	0	31
33.557731673599598	82.351478044449578	0	31
24.099559256593469	85.598472736496333	0	31
23.125460848979191	82.761021011394504	0	31
32.583633265985512	79.514026319347678	0	31
19.545440165071451	86.751732316630921	0	31
9.6818271310444715	88.397678219438205	0	31
9.1880433602020233	85.438594309230041	0	31
19.051656394229219	83.7926484064227	0	31
-88.069480824020161	12.314781304201579	0	31
-88.895274278743486	2.3489363741349418	0	31
-85.90552079972349	2.1011983377178862	0	31
-85.079727345000165	12.067043267784561	0	31
85.28562547610268	0	0	31
-85.28562547610268	0	0	31
91.926302583559419	0	0	31
-91.926302583559419	0	0	31
29.626594075680885	57.855552226859182	0	31
-29.626594075680902	57.855552226859167	0	31
244	0	0	31
-244	0	0	31
88.926302583559419	0	0	31
-88.926302583559419	0	0	31
85.535625476102666	0	0	31
-85.535625476102666	0	0	31
[NumSegments] = 220
0	1	-1	0	0	31
2	0	-1	0	0	31
3	2	-1	0	0	31
4	5	-1	0	0	31
6	4	-1	0	0	31
7	6	-1	0	0	31
5	7	-1	0	0	31
8	9	-1	0	0	31
10	8	-1	0	0	31
11	10	-1	0	0	31
9	11	-1	0	0	31
12	13	-1	0	0	31
14	12	-1	0	0	31
15	14	-1	0	0	31
13	15	-1	0	0	31
16	17	-1	0	0	31
18	16	-1	0	0	31
19	18	-1	0	0	31
17	19	-1	0	0	31
20	21	-1	0	0	31
22	20	-1	0	0	31
23	22	-1	0	0	31
21	23	-1	0	0	31
24	25	-1	0	0	31
26	24	-1	0	0	31
27	26	-1	0	0	31
25	27	-1	0	0	31
28	29	-1	0	0	31
30	28	-1	0	0	31
31	30	-1	0	0	31
29	31	-1	0	0	31
32	33	-1	0	0	31
34	32	-1	0	0	31
35	34	-1	0	0	31
33	35	-1	0	0	31
36	37	-1	0	0	31
38	36	-1	0	0	31
39	38	-1	0	0	31
37	39	-1	0	0	31
40	41	-1	0	0	31
42	40	-1	0	0	31
43	42	-1	0	0	31
41	43	-1	0	0	31
44	45	-1	0	0	31
46	44	-1	0	0	31
47	46	-1	0	0	31
45	47	-1	0	0	31
48	49	-1	0	0	31
50	48	-1	0	0	31
51	50	-1	0	0	31
49	51	-1	0	0	31
52	53	-1	0	0	31
54	52	-1	0	0	31
55	54	-1	0	0	31
53	55	-1	0	0	31
56	57	-1	0	0	31
58	56	-1	0	0	31
59	58	-1	0	0	31
57	59	-1	0	0	31
60	61	-1	0	0	31
62	60	-1	0	0	31
63	62	-1	0	0	31
61	63	-1	0	0	31
64	65	-1	0	0	31
66	64	-1	0	0	31
67	66	-1	0	0	31
65	67	-1	0	0	31
68	69	-1	0	0	31
70	68	-1	0	0	31
71	70	-1	0	0	31
69	71	-1	0	0	31
72	73	-1	0	0	31
74	72	-1	0	0	31
75	74	-1	0	0	31
73	75	-1	0	0	31
76	77	-1	0	0	31
78	76	-1	0	0	31
79	78	-1	0	0	31
77	79	-1	0	0	31
80	81	-1	0	0	31
82	80	-1	0	0	31
83	82	-1	0	0	31
81	83	-1	0	0	31
84	85	-1	0	0	31
86	84	-1	0	0	31
87	86	-1	0	0	31
85	87	-1	0	0	31
88	89	-1	0	0	31
90	88	-1	0	0	31
91	90	-1	0	0	31
89	91	-1	0	0	31
92	93	-1	0	0	31
94	92	-1	0	0	31
95	94	-1	0	0	31
93	95	-1	0	0	31
96	97	-1	0	0	31
98	96	-1	0	0	31
99	98	-1	0	0	31
100	101	-1	0	0	31
102	103	-1	0	0	31
103	100	-1	0	0	31
104	105	-1	0	0	31
105	106	-1	0	0	31
106	107	-1	0	0	31
108	109	-1	0	0	31
110	111	-1	0	0	31
111	108	-1	0	0	31
112	113	-1	0	0	31
113	114	-1	0	0	31
115	116	-1	0	0	31
117	118	-1	0	0	31
118	115	-1	0	0	31
119	120	-1	0	0	31
121	122	-1	0	0	31
122	119	-1	0	0	31
123	124	-1	0	0	31
1	3	-1	0	0	31
124	125	-1	0	0	31
125	126	-1	0	0	31
127	128	-1	0	0	31
128	129	-1	0	0	31
129	130	-1	0	0	31
131	132	-1	0	0	31
133	134	-1	0	0	31
134	131	-1	0	0	31
135	136	-1	0	0	31
137	228	-1	0	0	31
138	135	-1	0	0	31
139	140	-1	0	0	31
140	141	-1	0	0	31
141	142	-1	0	0	31
143	144	-1	0	0	31
144	145	-1	0	0	31
145	146	-1	0	0	31
146	143	-1	0	0	31
147	148	-1	0	0	31
148	149	-1	0	0	31
149	150	-1	0	0	31
103	151	-1	0	0	31
150	147	-1	0	0	31
151	152	-1	0	0	31
153	112	-1	0	0	31
154	113	-1	0	0	31
155	156	-1	0	0	31
157	158	-1	0	0	31
159	160	-1	0	0	31
161	157	-1	0	0	31
162	159	-1	0	0	31
163	161	-1	0	0	31
164	162	-1	0	0	31
160	164	-1	0	0	31
165	156	-1	0	0	31
166	165	-1	0	0	31
155	166	-1	0	0	31
167	229	-1	0	0	31
169	167	-1	0	0	31
170	169	-1	0	0	31
171	172	-1	0	0	31
173	171	-1	0	0	31
174	173	-1	0	0	31
172	174	-1	0	0	31
175	176	-1	0	0	31
177	175	-1	0	0	31
178	177	-1	0	0	31
176	178	-1	0	0	31
179	180	-1	0	0	31
181	179	-1	0	0	31
182	181	-1	0	0	31
180	182	-1	0	0	31
183	184	-1	0	0	31
185	183	-1	0	0	31
186	185	-1	0	0	31
187	188	-1	0	0	31
189	190	-1	0	0	31
134	187	-1	0	0	31
118	189	-1	0	0	31
191	125	-1	0	0	31
192	191	-1	0	0	31
193	192	-1	0	0	31
194	193	-1	0	0	31
195	106	-1	0	0	31
122	194	-1	0	0	31
196	195	-1	0	0	31
197	196	-1	0	0	31
198	197	-1	0	0	31
199	154	-1	0	0	31
111	198	-1	0	0	31
190	199	-1	0	0	31
200	167	-1	0	0	31
201	200	-1	0	0	31
152	201	-1	0	0	31
188	202	-1	0	0	31
202	203	-1	0	0	31
203	129	-1	0	0	31
138	204	-1	0	0	31
204	205	-1	0	0	31
205	206	-1	0	0	31
206	207	-1	0	0	31
207	141	-1	0	0	31
208	209	-1	0	0	31
209	210	-1	0	0	31
210	211	-1	0	0	31
211	208	-1	0	0	31
212	213	-1	0	0	31
213	214	-1	0	0	31
214	215	-1	0	0	31
215	212	-1	0	0	31
216	217	-1	0	0	31
217	218	-1	0	0	31
218	219	-1	0	0	31
219	216	-1	0	0	31
184	186	-1	0	0	31
158	163	-1	0	0	31
220	221	-1	0	0	31
221	222	-1	0	0	31
222	223	-1	0	0	31
223	220	-1	0	0	31
97	99	-1	0	0	31
228	138	-1	0	0	31
229	168	-1	0	0	31
[NumArcSegments] = 66
224	225	180	1	2	0	0	0.17000000000000001
225	224	180	1	2	0	0	0.17000000000000001
226	227	180	1	1	0	0	1
227	226	180	1	1	0	0	1
102	101	0.79368977887909864	5	0	0	31	5
137	168	54.509684342570793	5	0	0	31	5
228	136	0.79368977888024261	5	0	0	31	5
209	212	3.0272212373677547	5	0	0	31	5
170	229	0.79368977888030656	5	0	0	31	5
104	107	0.79368977888030412	5	0	0	31	5
107	102	5.7679650811756185	5	0	0	31	5
153	114	0.793689778880309	5	0	0	31	5
114	110	5.7679650811755971	5	0	0	31	5
110	109	0.79368977888028158	5	0	0	31	5
123	126	0.79368977888030545	5	0	0	31	5
126	117	5.7679650811756078	5	0	0	31	5
117	116	0.79368977888029024	5	0	0	31	5
127	130	0.79368977888030257	5	0	0	31	5
130	121	5.7679650811756478	5	0	0	31	5
121	120	0.79368977888029169	5	0	0	31	5
230	231	180	5	0	0	31	2.5
231	230	180	5	0	0	31	2.5
232	21	1.5136106186837113	5	0	0	31	5
23	17	3.027221237367447	5	0	0	31	5
19	13	3.02722123736749	5	0	0	31	5
15	9	3.0272212373674487	5	0	0	31	5
11	5	3.0272212373674456	5	0	0	31	5
7	3	3.0272212373674749	5	0	0	31	5
2	208	3.0272212373674594	5	0	0	31	5
213	216	3.0272212373676419	5	0	0	31	5
217	184	3.0272212373676672	5	0	0	31	5
186	180	3.0272212373674283	5	0	0	31	5
182	176	3.0272212373674727	5	0	0	31	5
178	172	3.0272212373674683	5	0	0	31	5
174	155	3.0272212373674616	5	0	0	31	5
166	160	3.0272212373674727	5	0	0	31	5
164	143	3.0272212373674674	5	0	0	31	5
144	150	3.0272212373676397	5	0	0	31	5
147	163	3.0272212373674798	5	0	0	31	5
161	220	3.0272212373674643	5	0	0	31	5
221	233	1.5136106186837983	5	0	0	31	5
233	97	1.5136106186837139	5	0	0	31	5
99	93	3.0272212373674798	5	0	0	31	5
95	89	3.0272212373674456	5	0	0	31	5
91	85	3.027221237367459	5	0	0	31	5
87	81	3.0272212373675016	5	0	0	31	5
83	77	3.0272212373674616	5	0	0	31	5
79	73	3.0272212373674039	5	0	0	31	5
75	69	3.0272212373675313	5	0	0	31	5
71	65	3.0272212373674625	5	0	0	31	5
67	61	3.0272212373674767	5	0	0	31	5
63	57	3.0272212373674869	5	0	0	31	5
59	53	3.0272212373674661	5	0	0	31	5
55	49	3.0272212373674021	5	0	0	31	5
51	45	3.0272212373674665	5	0	0	31	5
47	41	3.0272212373674612	5	0	0	31	5
43	37	3.0272212373674812	5	0	0	31	5
39	33	3.0272212373674643	5	0	0	31	5
35	29	3.0272212373674652	5	0	0	31	5
31	25	3.0272212373674678	5	0	0	31	5
27	232	1.5136106186837732	5	0	0	31	5
139	142	0.793689778880317	5	0	0	31	5
142	133	5.7679650811755945	5	0	0	31	5
133	132	0.79368977888029424	5	0	0	31	5
234	235	180	1	2	0	0	0.17000000000000001
235	234	180	1	2	0	0	0.17000000000000001
[NumHoles] = 1
0	85.375	0
[NumBlockLabels] = 55
0	121	1	-1	0	0	0	1	0
0	85.75	1	-1	0	0	0	1	0
0	85	1	-1	0	0	0	1	0
0	63	4	-1	0	0	0	1	0
0	90.25	3	-1	0	0	0	1	0
0	87.25	2	-1	0	90.000000000000014	0	1	0
14.36087800199404	86.060023721887518	2	-1	0	-99.473684210526329	0	1	0
28.330028688108641	82.522554338380374	2	-1	0	71.05263157894737	0	1	0
41.52641004248467	76.734084792766168	2	-1	0	-118.42105263157896	0	1	0
53.590059182173519	68.852509444835334	2	-1	0	52.105263157894733	0	1	0
64.191911206230728	59.092817124345899	2	-1	0	-137.36842105263159	0	1	0
73.042775228405617	47.721226796181746	2	-1	0	33.157894736842103	0	1	0
79.901222750653758	35.047925800971591	2	-1	0	-156.31578947368422	0	1	0
84.58017320320657	21.418608753034729	2	-1	0	14.21052631578948	0	1	0
86.951997014831946	7.2050478924609962	2	-1	0	-175.26315789473682	0	1	0
86.951997014831946	-7.2050478924609962	2	-1	0	175.26315789473682	0	1	0
84.58017320320657	-21.418608753034729	2	-1	0	-14.21052631578948	0	1	0
79.901222750653773	-35.047925800971569	2	-1	0	156.31578947368422	0	1	0
73.042775228405631	-47.721226796181732	2	-1	0	-33.157894736842088	0	1	0
64.191911206230742	-59.092817124345899	2	-1	0	137.36842105263159	0	1	0
53.590059182173526	-68.852509444835334	2	-1	0	-52.105263157894726	0	1	0
41.52641004248467	-76.734084792766168	2	-1	0	118.42105263157896	0	1	0
28.330028688108641	-82.522554338380374	2	-1	0	-71.05263157894737	0	1	0
14.36087800199404	-86.060023721887518	2	-1	0	99.473684210526329	0	1	0
5.3425216612803287e-015	-87.25	2	-1	0	-90	0	1	0
-14.360878001994028	-86.060023721887532	2	-1	0	80.526315789473685	0	1	0
-28.33002868810863	-82.522554338380374	2	-1	0	-108.94736842105263	0	1	0
-41.52641004248467	-76.734084792766168	2	-1	0	61.578947368421048	0	1	0
-53.590059182173519	-68.852509444835334	2	-1	0	-127.89473684210526	0	1	0
-64.191911206230714	-59.092817124345927	2	-1	0	42.631578947368439	0	1	0
-73.042775228405617	-47.721226796181739	2	-1	0	-146.84210526315789	0	1	0
-79.901222750653744	-35.047925800971619	2	-1	0	23.684210526315823	0	1	0
-84.580173203206584	-21.418608753034718	2	-1	0	-165.78947368421052	0	1	0
-86.951997014831946	-7.2050478924610255	2	-1	0	4.7368421052631646	0	1	0
-86.951997014831946	7.2050478924610051	2	-1	0	-4.7368421052631646	0	1	0
-84.580173203206584	21.4186087530347	2	-1	0	165.78947368421055	0	1	0
-79.901222750653758	35.047925800971598	2	-1	0	-23.684210526315795	0	1	0
-73.042775228405631	47.721226796181718	2	-1	0	146.84210526315792	0	1	0
-64.191911206230785	59.092817124345864	2	-1	0	-42.631578947368375	0	1	0
-53.590059182173533	68.852509444835334	2	-1	0	127.89473684210529	0	1	0
-41.52641004248472	76.73408479276614	2	-1	0	-61.578947368421012	0	1	0
-28.330028688108651	82.522554338380374	2	-1	0	108.94736842105264	0	1	0
-14.360878001994088	86.060023721887518	2	-1	0	-80.526315789473642	0	1	0
-33.041051553533229	66.242670630317733	5	-1	1	0	0	20	0
-21.036164698850214	70.973814007441135	5	-1	1	0	0	-20	0
-8.3921046246056026	73.548453960431232	5	-1	2	0	0	-20	0
4.5069453020477912	73.888361357147105	5	-1	2	0	0	20	0
17.269053976322862	71.983208283340971	5	-1	3	0	0	20	0
29.506451184090281	67.890881851106471	5	-1	3	0	0	-20	0
-29.506451184090292	67.890881851106471	5	-1	1	0	0	-20	0
-17.269053976322855	71.983208283340986	5	-1	1	0	0	20	0
-4.5069453020477992	73.888361357147105	5	-1	2	0	0	20	0
8.3921046246056132	73.548453960431246	5	-1	2	0	0	-20	0
21.036164698850211	70.973814007441149	5	-1	3	0	0	-20	0
33.041051553533237	66.242670630317747	5	-1	3	0	0	20	0
